  6

 C        -4.208000        6.386000       -8.936000
 C        -3.847000        5.119000       -9.147000
 H        -3.449000        7.150000       -8.774000
 H        -2.792000        4.847000       -9.158000
 H        -4.607000        4.355000       -9.309000
 H        -5.263000        6.658000       -8.925000
