  12

 O        -9.965000        5.951000      -10.593000
 C        -9.693000        5.856000       -9.324000
 C       -10.849000        5.701000       -8.674000
 C       -11.888000        5.714000       -9.713000
 C       -11.234000        5.874000      -10.867000
 H       -11.690000        5.929000      -11.855000
 C       -13.319000        5.580000       -9.525000
 H       -10.992000        5.590000       -7.599000
 H        -8.704000        5.893000       -8.867000
 H       -13.819000        5.629000      -10.492000
 H       -13.535000        4.623000       -9.053000
 H       -13.678000        6.388000       -8.889000
